IEEE 13 Bus analysis for 3 months (2)/IEEE13Master.dss
Clear

!================ CIRCUIT DEFINITION ================
New Circuit.IEEE13Nodeckt 
~ basekv=115 phases=3 bus1=SourceBus Angle=30 

!================ TRANSFORMERS ================
New Transformer.Sub Phases=3 Windings=2 XHL=0.08
~ wdg=1 bus=SourceBus conn=delta kv=115 kva=5000 %r=1 
~ wdg=2 bus=650 conn=wye kv=4.16 kva=5000 %r=1  

New Transformer.Reg1 phases=1 bank=reg1 XHL=0.05 kVAs=[1666 1666]
~ Buses=[650.1 RG60.1] kVs=[2.4 2.4] conns=[wye wye]
New Regcontrol.Reg1 transformer=Reg1 winding=2 vreg=122 band=2 ptratio=20 ctprim=700 R=3 X=9 

New Transformer.Reg2 phases=1 bank=reg1 XHL=0.05 kVAs=[1666 1666]
~ Buses=[650.2 RG60.2] kVs=[2.4 2.4] conns=[wye wye]
New Regcontrol.Reg2 transformer=Reg2 winding=2 vreg=122 band=2 ptratio=20 ctprim=700 R=3 X=9 

New Transformer.Reg3 phases=1 bank=reg1 XHL=0.05 kVAs=[1666 1666]
~ Buses=[650.3 RG60.3] kVs=[2.4 2.4] conns=[wye wye]
New Regcontrol.Reg3 transformer=Reg3 winding=2 vreg=122 band=2 ptratio=20 ctprim=700 R=3 X=9 

New Transformer.XFM1 Phases=3 Windings=2 XHL=2
~ wdg=1 bus=633 conn=Wye kv=4.16 kva=500 %r=.55
~ wdg=2 bus=634 conn=Wye kv=0.48 kva=500 %r=.55

!================ LINE CODES ================
New Linecode.mtx601 nphases=3 units=mi
~ Rmatrix=(0.3465 | 0.1560 0.3375 | 0.1580 0.1535 0.3414)
~ Xmatrix=(1.0179 | 0.5017 1.0478 | 0.4236 0.3849 1.0348)

New Linecode.mtx602 nphases=3 units=mi
~ Rmatrix=(0.7526 | 0.1580 0.7475 | 0.1560 0.1535 0.7436)
~ Xmatrix=(1.1814 | 0.4236 1.1983 | 0.5017 0.3849 1.2112)

New Linecode.mtx603 nphases=2 units=mi
~ Rmatrix=(1.3238 | 0.2066 1.3294)
~ Xmatrix=(1.3569 | 0.4591 1.3471)

New Linecode.mtx604 nphases=2 units=mi
~ Rmatrix=(1.3238 | 0.2066 1.3294)
~ Xmatrix=(1.3569 | 0.4591 1.3471)

New Linecode.mtx605 nphases=1 units=mi
~ Rmatrix=(1.3292)
~ Xmatrix=(1.3475)

New Linecode.mtx606 nphases=3 units=mi
~ Rmatrix=(0.791721 | 0.318476 0.781649 | 0.28345 0.318476 0.791721)
~ Xmatrix=(0.438352 | 0.0276838 0.396697 | -0.0184204 0.0276838 0.438352)
~ Cmatrix=(383.948 | 0 383.948 | 0 0 383.948)

New Linecode.mtx607 nphases=1 units=mi
~ Rmatrix=(1.3425)
~ Xmatrix=(0.5124)
~ Cmatrix=(236)

!================ LINES ================
New Line.650632 Phases=3 Bus1=RG60.1.2.3 Bus2=632.1.2.3 LineCode=mtx601 Length=2000 units=ft
New Line.632671 Phases=3 Bus1=632.1.2.3 Bus2=671.1.2.3 LineCode=mtx601 Length=2000 units=ft
New Line.671680 Phases=3 Bus1=671.1.2.3 Bus2=680.1.2.3 LineCode=mtx601 Length=1000 units=ft

New Line.632633 Phases=3 Bus1=632.1.2.3 Bus2=633.1.2.3 LineCode=mtx602 Length=500 units=ft
New Line.632645 Phases=2 Bus1=632.3.2 Bus2=645.3.2 LineCode=mtx603 Length=500 units=ft
New Line.645646 Phases=2 Bus1=645.3.2 Bus2=646.3.2 LineCode=mtx603 Length=300 units=ft

New Line.671684 Phases=2 Bus1=671.1.3 Bus2=684.1.3 LineCode=mtx604 Length=300 units=ft
New Line.684611 Phases=1 Bus1=684.3 Bus2=611.3 LineCode=mtx605 Length=300 units=ft
New Line.684652 Phases=1 Bus1=684.1 Bus2=652.1 LineCode=mtx607 Length=800 units=ft

New Line.692675 Phases=3 Bus1=692.1.2.3 Bus2=675.1.2.3 LineCode=mtx606 Length=500 units=ft
New Line.671692 Phases=3 Bus1=671.1.2.3 Bus2=692.1.2.3 Switch=y r1=1e-4 x1=0

!================ LOADS (ORIGINAL + NEW) ================
New Load.671 Bus1=671.1.2.3 Phases=3 Conn=Delta kV=4.16 kW=1155 kvar=660
New Load.634a Bus1=634.1 Phases=1 Conn=Wye kV=0.277 kW=160 kvar=110
New Load.634b Bus1=634.2 Phases=1 Conn=Wye kV=0.277 kW=120 kvar=90
New Load.634c Bus1=634.3 Phases=1 Conn=Wye kV=0.277 kW=120 kvar=90
New Load.645 Bus1=645.2 Phases=1 Conn=Wye kV=2.4 kW=170 kvar=125
New Load.646 Bus1=646.2.3 Phases=1 Conn=Delta kV=4.16 kW=230 kvar=132
New Load.692 Bus1=692.3.1 Phases=1 Conn=Delta kV=4.16 kW=170 kvar=151

New Load.675a Bus1=675.1 Phases=1 Conn=Wye kV=2.4 kW=485 kvar=190
New Load.675b Bus1=675.2 Phases=1 Conn=Wye kV=2.4 kW=68 kvar=60
New Load.675c Bus1=675.3 Phases=1 Conn=Wye kV=2.4 kW=290 kvar=212

New Load.611 Bus1=611.3 Phases=1 Conn=Wye kV=2.4 kW=170 kvar=80
New Load.652 Bus1=652.1 Phases=1 Conn=Wye kV=2.4 kW=128 kvar=86
/*commented
! NEW LOADS FROM IMAGE
New Load.IrrigationPump Bus1=671.1 Phases=1 Conn=Wye kV=2.4 kW=80 kvar=40
New Load.Residential Bus1=680.1.2.3 Phases=3 Conn=Wye kV=4.16 kW=150 kvar=90
New Load.CoolingSchools Bus1=684.3 Phases=1 Conn=Wye kV=2.4 kW=60 kvar=30
New Load.AgroProcessing Bus1=692.1.2.3 Phases=3 Conn=Wye kV=4.16 kW=120 kvar=70
commented*/

!================ CAPACITORS (ORIGINAL + NEW) ================
New Capacitor.Cap1 Bus1=675 phases=3 kVAR=200 kV=4.16 
New Capacitor.Cap2 Bus1=611.3 phases=1 kVAR=30 kV=2.4 

/*commented
! NEW CAPS FROM IMAGE
New Capacitor.Cap3 Bus1=671.1 phases=1 kVAR=40 kV=2.4
New Capacitor.Cap4 Bus1=680 phases=3 kVAR=100 kV=4.16
New Capacitor.Cap5 Bus1=684.3 phases=1 kVAR=30 kV=2.4
New Capacitor.Cap6 Bus1=692 phases=3 kVAR=80 kV=4.16
commented*/

!===========================================================
! LOAD SHAPE
!===========================================================

New Loadshape.Daily24
~ npts=24
~ interval=1
~ mult=(0.60 0.55 0.50 0.45 0.40 0.45 0.60 0.75 0.90 1.00 1.10 1.15 1.20 1.25 1.20 1.15 1.10 1.20 1.35 1.50 1.40 1.20 0.95 0.75)

BatchEdit Load..* daily=Daily24

!===========================================================
! SOLAR PROFILE
!===========================================================

New Loadshape.SolarShape
~ npts=24
~ interval=1
~ mult=(0 0 0 0 0 0.05 0.20 0.40 0.60 0.80 0.90 0.95 1.00 0.95 0.85 0.70 0.50 0.30 0.10 0 0 0 0 0)

!===========================================================
! TEMPERATURE PROFILE
!===========================================================

New Tshape.TempShape
~ npts=24
~ interval=1
~ temp=(24 24 23 23 22 23 24 26 28 30 32 34 35 36 36 35 33 31 29 28 27 26 25 24)

!===========================================================

!===========================================================
! ENERGY METER
!===========================================================

New EnergyMeter.Main
~ element=Line.650632
~ terminal=1

!===========================================================
! MONITORS
!===========================================================

New Monitor.Bus675Voltage
~ element=Line.692675
~ terminal=2
~ mode=0

New Monitor.Bus671Voltage
~ element=Line.632671
~ terminal=2
~ mode=0

New Monitor.Bus652Voltage
~ element=Line.684652
~ terminal=2
~ mode=0

!===========================================================
! VOLTAGE BASES
!===========================================================

Set Voltagebases=[115,4.16,0.48]

CalcVoltageBases

!===========================================================
! DAILY POWER FLOW
!===========================================================

Set mode=daily
Set stepsize=1h
Set number=24
Set controlmode=static
Set maxcontroliter=100

Solve

!===========================================================
! RESULTS
!===========================================================

!Show Voltages pu
!Show Powers kVA
!Show Losses
!Show Currents

!===========================================================
! EXPORTS
!===========================================================

Export Voltages
Export Powers
Export Losses

Export Monitor Bus675Voltage
Export Monitor Bus671Voltage
Export Monitor Bus652Voltage

Export Meter Main